Version 4
SHEET 1 1392 680
WIRE 256 -192 -240 -192
WIRE 256 -112 256 -192
WIRE -240 -16 -240 -192
WIRE 256 48 256 -32
WIRE 256 96 256 48
WIRE 192 176 32 176
WIRE 208 256 208 208
WIRE 208 256 32 256
WIRE 256 256 256 192
WIRE 256 256 208 256
WIRE -240 352 -240 64
WIRE 256 352 256 256
FLAG 256 352 0
FLAG -240 352 0
FLAG 256 48 Vds
FLAG -240 -192 Vdd
SYMBOL ind 240 -128 R0
SYMATTR InstName L
SYMATTR Value 1m
SYMBOL voltage -240 -32 R0
WINDOW 123 0 0 Left 0
WINDOW 39 0 0 Left 0
SYMATTR InstName Vdd
SYMATTR Value 100m
SYMBOL voltage 32 160 R0
WINDOW 0 -86 53 Left 2
WINDOW 3 -191 134 Left 2
WINDOW 123 0 0 Left 0
WINDOW 39 0 0 Left 0
SYMATTR InstName Vgs
SYMATTR Value PULSE(0 6 100u 5n 5n 1000u 1)
SYMBOL GaN_E-HEMT_LT_GS66508B_L1V2 208 144 R0
WINDOW 3 -72 -40 Center 2
SYMATTR InstName U1
TEXT -274 376 Left 2 !.tran 0 1105u 1099u 1n
